Circuit: * C:\Users\seijirom\Dropbox\MakeLSI\2020_9\2in1_OpAmp\2in1_tb1.asc

WARNING: Less than two connections to node N002.  This node is used by R2.
Warning: Pd = 0 is less than W.
Warning: Ps = 0 is less than W.
Warning: Pd = 0 is less than W.
Warning: Ps = 0 is less than W.
Warning: Pd = 0 is less than W.
Warning: Ps = 0 is less than W.
Warning: Pd = 0 is less than W.
Warning: Ps = 0 is less than W.
Warning: Pd = 0 is less than W.
Warning: Ps = 0 is less than W.
Warning: Pd = 0 is less than W.
Warning: Ps = 0 is less than W.
Direct Newton iteration failed to find .op point.  (Use ".option noopiter" to skip.)
Starting Gmin stepping
Gmin = 10
Gmin = 1.07374
Gmin = 0.115292
Gmin = 0.0123794
Gmin = 0.00132923
Gmin = 0.000142725
Gmin = 1.5325e-005
Gmin = 1.6455e-006
Gmin = 1.76685e-007
Gmin = 1.89714e-008
Gmin = 2.03704e-009
Gmin = 2.18725e-010
Gmin = 2.34854e-011
Gmin = 2.52173e-012
Gmin = 2.70769e-013
Gmin = 0
Gmin stepping succeeded in finding the operating point.


Date: Thu Oct 22 08:35:43 2020
Total elapsed time: 1.503 seconds.

tnom = 27
temp = 27
method = modified trap
totiter = 2554
traniter = 2094
tranpoints = 1046
accept = 1045
rejected = 1
matrix size = 28
fillins = 22
solver = Normal
Matrix Compiler1: 3.90 KB object code size  153.5/0.9/[0.5]
Matrix Compiler2: 3.18 KB object code size  1.5/1.5/[0.7]

