Circuit: * Z:\home\yuuki\work\2in1_OpAmp\amp_tb.asc

Warning: Multiple definitions of model "aons66402" Type: Vdmos1
Warning: Pd = 0 is less than W.
Warning: Ps = 0 is less than W.
Warning: Pd = 0 is less than W.
Warning: Ps = 0 is less than W.
Warning: Pd = 0 is less than W.
Warning: Ps = 0 is less than W.
Warning: Pd = 0 is less than W.
Warning: Ps = 0 is less than W.
Warning: Pd = 0 is less than W.
Warning: Ps = 0 is less than W.
Warning: Pd = 0 is less than W.
Warning: Ps = 0 is less than W.
Direct Newton iteration failed to find .op point.  (Use ".option noopiter" to skip.)
Starting Gmin stepping
Gmin = 10
Gmin = 1.07374
Gmin = 0.115292
Gmin = 0.0123794
Gmin = 0.00132923
Gmin = 0.000142725
Gmin = 1.5325e-005
Gmin = 1.6455e-006
Gmin = 1.76685e-007
Gmin = 1.89714e-008
Gmin = 2.03704e-009
Gmin = 2.18725e-010
Gmin = 2.34854e-011
Gmin = 2.52173e-012
Gmin = 2.70769e-013
Gmin = 0
Gmin stepping succeeded in finding the operating point.


t10rise:=0.002 FROM 0 TO 0.002
t90rise:=0.002 FROM 0 TO 0.002
sr+:=0.002 FROM 0 TO 0.002
t10fall:=0.002 FROM 0 TO 0.002
t90fall:=0.002 FROM 0 TO 0.002
sr-:=0.002 FROM 0 TO 0.002


Date: Sun Jun 13 19:31:40 2021
Total elapsed time: 0.115 seconds.

tnom = 27
temp = 27
method = modified trap
totiter = 2513
traniter = 2092
tranpoints = 1047
accept = 1047
rejected = 0
matrix size = 12
fillins = 4
solver = Normal
Matrix Compiler1: 1020 bytes object code size  0.2/0.1/[0.1]
Matrix Compiler2: 1.12 KB object code size  0.2/0.1/[0.1]

