Questionable use of curly braces in "v3 vin 0 {vin}"
    Error: undefined symbol in: "[vin]"
Circuit: * C:\Users\seijirom\Dropbox\MakeLSI\2020_9\2in1_OpAmp\CMRR_tb.asc

Error on line 10 : v3 vin 0 (vin)
	 Unknown parameter "vin"
Warning: Pd = 0 is less than W.
Warning: Ps = 0 is less than W.
Warning: Pd = 0 is less than W.
Warning: Ps = 0 is less than W.
Warning: Pd = 0 is less than W.
Warning: Ps = 0 is less than W.
Warning: Pd = 0 is less than W.
Warning: Ps = 0 is less than W.
Warning: Pd = 0 is less than W.
Warning: Ps = 0 is less than W.
Warning: Pd = 0 is less than W.
Warning: Ps = 0 is less than W.
V3: Missing value, assumed 0V @ DC

Date: Thu Oct 22 10:57:45 2020
Total elapsed time: 0.191 seconds.

tnom = 27
temp = 27
method = trap
totiter = 1032
traniter = 0
tranpoints = 0
accept = 0
rejected = 0
matrix size = 30
fillins = 24
solver = Normal
Thread vector: 44.6/33.6[2] 0.0/0.0[0] 3.0/2.6[2] 0.4/4.8[1]  2592/500
Matrix Compiler1: 4.37 KB object code size  1.9/1.5/[0.6]
Matrix Compiler2: 3.45 KB object code size  0.9/1.2/[0.4]

