Questionable use of curly braces in "v3 vin 0 {vin}"
    Error: undefined symbol in: "[vin]"
Circuit: * C:\Users\seijirom\Dropbox\MakeLSI\2020_9\2in1_OpAmp\CMRR_tb.asc

Error on line 10 : v3 vin 0 (vin)
	 Unknown parameter "vin"
Warning: Pd = 0 is less than W.
Warning: Ps = 0 is less than W.
Warning: Pd = 0 is less than W.
Warning: Ps = 0 is less than W.
Warning: Pd = 0 is less than W.
Warning: Ps = 0 is less than W.
Warning: Pd = 0 is less than W.
Warning: Ps = 0 is less than W.
Warning: Pd = 0 is less than W.
Warning: Ps = 0 is less than W.
Warning: Pd = 0 is less than W.
Warning: Ps = 0 is less than W.
V3: Missing value, assumed 0V @ DC

Date: Thu Oct 22 10:14:54 2020
Total elapsed time: 0.341 seconds.

tnom = 27
temp = 27
method = trap
totiter = 1054
traniter = 0
tranpoints = 0
accept = 0
rejected = 0
matrix size = 30
fillins = 24
solver = Normal
Thread vector: 36.3/22.2[2] 0.0/0.0[0] 3.5/3.0[2] 0.4/150.9[1]  2592/500
Matrix Compiler1: 4.37 KB object code size  3.9/1.9/[0.6]
Matrix Compiler2: 3.45 KB object code size  1.1/1.3/[0.4]

