Circuit: * C:\Users\seijirom\Dropbox\MakeLSI\2020_9\2in1_OpAmp\PSRR_tb.asc

Warning: Pd = 0 is less than W.
Warning: Ps = 0 is less than W.
Warning: Pd = 0 is less than W.
Warning: Ps = 0 is less than W.
Warning: Pd = 0 is less than W.
Warning: Ps = 0 is less than W.
Warning: Pd = 0 is less than W.
Warning: Ps = 0 is less than W.
Warning: Pd = 0 is less than W.
Warning: Ps = 0 is less than W.
Warning: Pd = 0 is less than W.
Warning: Ps = 0 is less than W.
.step rf=1000
.step rf=10000
.step rf=100000

Date: Thu Oct 22 10:48:05 2020
Total elapsed time: 0.639 seconds.

tnom = 27
temp = 27
method = trap
totiter = 1048
traniter = 0
tranpoints = 0
accept = 0
rejected = 0
matrix size = 26
fillins = 24
solver = Normal
Matrix Compiler1: 4.28 KB object code size  1.2/0.6/[0.4]
Matrix Compiler2: 3.20 KB object code size  0.5/0.5/[0.3]

