Circuit: * C:\Users\seijirom\Dropbox\MakeLSI\2020_9\2in1_OpAmp\PSRR_tb.asc

Warning: Pd = 0 is less than W.
Warning: Ps = 0 is less than W.
Warning: Pd = 0 is less than W.
Warning: Ps = 0 is less than W.
Warning: Pd = 0 is less than W.
Warning: Ps = 0 is less than W.
Warning: Pd = 0 is less than W.
Warning: Ps = 0 is less than W.
Warning: Pd = 0 is less than W.
Warning: Ps = 0 is less than W.
Warning: Pd = 0 is less than W.
Warning: Ps = 0 is less than W.

Date: Thu Oct 22 10:55:37 2020
Total elapsed time: 0.197 seconds.

tnom = 27
temp = 27
method = trap
totiter = 1048
traniter = 0
tranpoints = 0
accept = 0
rejected = 0
matrix size = 26
fillins = 24
solver = Normal
Thread vector: 41.4/28.9[2] 0.0/0.0[0] 4.6/3.1[2] 0.3/1.4[1]  2592/500
Matrix Compiler1: 4.28 KB object code size  1.7/1.1/[0.6]
Matrix Compiler2: 3.20 KB object code size  0.8/0.9/[0.4]

